12
XYZ from PySCF
C          -0.65977       -1.21162        3.98677
C           0.73864       -1.21165        4.02061
C          -1.35877       -0.00005        3.96988
C           1.43757       -0.00005        4.03752
C          -0.65980        1.21153        3.98679
C           0.73861        1.21153        4.02063
H          -1.20631       -2.15840        3.97355
H           1.28519       -2.15843        4.03382
H          -2.45173       -0.00006        3.94344
H           2.53053       -0.00004        4.06395
H          -1.20634        2.15832        3.97359
H           1.28515        2.15831        4.03386
